
---------- Begin Simulation Statistics ----------
final_tick                               568025644500                       # Number of ticks from beginning of simulation (restored from checkpoints and never reset)
host_inst_rate                                   7834                       # Simulator instruction rate (inst/s)
host_mem_usage                                7859456                       # Number of bytes of host memory used
host_op_rate                                    15129                       # Simulator op (including micro ops) rate (op/s)
host_seconds                                  2233.91                       # Real time elapsed on the host
host_tick_rate                              254273951                       # Simulator tick rate (ticks/s)
sim_freq                                 1000000000000                       # Frequency of simulated ticks
sim_insts                                    17501211                       # Number of instructions simulated
sim_ops                                      33796204                       # Number of ops (including micro ops) simulated
sim_seconds                                  0.568026                       # Number of seconds simulated
sim_ticks                                568025644500                       # Number of ticks simulated
system.cpu0.branchPred.BTBCorrect                   0                       # Number of correct BTB predictions (this stat may not work properly.
system.cpu0.branchPred.BTBHitPct             0.000000                       # BTB Hit Percentage
system.cpu0.branchPred.BTBHits                      0                       # Number of BTB hits
system.cpu0.branchPred.BTBLookups             2462820                       # Number of BTB lookups
system.cpu0.branchPred.RASInCorrect                 3                       # Number of incorrect RAS predictions.
system.cpu0.branchPred.condIncorrect            63551                       # Number of conditional branches incorrect
system.cpu0.branchPred.condPredicted          2579660                       # Number of conditional branches predicted
system.cpu0.branchPred.indirectHits           1071214                       # Number of indirect target hits.
system.cpu0.branchPred.indirectLookups        2462820                       # Number of indirect predictor lookups.
system.cpu0.branchPred.indirectMisses         1391606                       # Number of indirect misses.
system.cpu0.branchPred.lookups                2893114                       # Number of BP lookups
system.cpu0.branchPred.usedRAS                 145392                       # Number of times the RAS was used to get a target.
system.cpu0.branchPredindirectMispredicted        57935                       # Number of mispredicted indirect branches.
system.cpu0.cache.hitRatio                   0.991347                       # The ratio of hits to the total accesses to the cache
system.cpu0.cache.hits                        5143182                       # Number of hits
system.cpu0.cache.missLatency::samples          44895                       # Ticks for misses to the cache
system.cpu0.cache.missLatency::mean      12588182.447934                       # Ticks for misses to the cache
system.cpu0.cache.missLatency::gmean     7182568.587394                       # Ticks for misses to the cache
system.cpu0.cache.missLatency::stdev     16620282.272317                       # Ticks for misses to the cache
system.cpu0.cache.missLatency::0-8.38861e+06        20804     46.34%     46.34% # Ticks for misses to the cache
system.cpu0.cache.missLatency::8.38861e+06-1.67772e+07        18082     40.28%     86.62% # Ticks for misses to the cache
system.cpu0.cache.missLatency::1.67772e+07-2.51658e+07         3680      8.20%     94.81% # Ticks for misses to the cache
system.cpu0.cache.missLatency::2.51658e+07-3.35544e+07          203      0.45%     95.26% # Ticks for misses to the cache
system.cpu0.cache.missLatency::3.35544e+07-4.1943e+07            3      0.01%     95.27% # Ticks for misses to the cache
system.cpu0.cache.missLatency::4.1943e+07-5.03316e+07            0      0.00%     95.27% # Ticks for misses to the cache
system.cpu0.cache.missLatency::5.03316e+07-5.87203e+07            0      0.00%     95.27% # Ticks for misses to the cache
system.cpu0.cache.missLatency::5.87203e+07-6.71089e+07            0      0.00%     95.27% # Ticks for misses to the cache
system.cpu0.cache.missLatency::6.71089e+07-7.54975e+07          134      0.30%     95.57% # Ticks for misses to the cache
system.cpu0.cache.missLatency::7.54975e+07-8.38861e+07         1126      2.51%     98.08% # Ticks for misses to the cache
system.cpu0.cache.missLatency::8.38861e+07-9.22747e+07          765      1.70%     99.78% # Ticks for misses to the cache
system.cpu0.cache.missLatency::9.22747e+07-1.00663e+08           98      0.22%    100.00% # Ticks for misses to the cache
system.cpu0.cache.missLatency::1.00663e+08-1.09052e+08            0      0.00%    100.00% # Ticks for misses to the cache
system.cpu0.cache.missLatency::1.09052e+08-1.17441e+08            0      0.00%    100.00% # Ticks for misses to the cache
system.cpu0.cache.missLatency::1.17441e+08-1.25829e+08            0      0.00%    100.00% # Ticks for misses to the cache
system.cpu0.cache.missLatency::1.25829e+08-1.34218e+08            0      0.00%    100.00% # Ticks for misses to the cache
system.cpu0.cache.missLatency::total            44895                       # Ticks for misses to the cache
system.cpu0.cache.misses                        44895                       # Number of misses
system.cpu0.cc_regfile_reads                 12361997                       # number of cc regfile reads
system.cpu0.cc_regfile_writes                 6003466                       # number of cc regfile writes
system.cpu0.commit.amos                             0                       # Number of atomic instructions committed
system.cpu0.commit.branchMispredicts            63551                       # The number of times a branch was mispredicted
system.cpu0.commit.branches                   2219434                       # Number of branches committed
system.cpu0.commit.bw_lim_events              1744258                       # number cycles where commit BW limit reached
system.cpu0.commit.commitNonSpecStalls            113                       # The number of times commit has been forced to stall to communicate backwards
system.cpu0.commit.commitSquashedInsts        3434065                       # The number of squashed insts skipped by commit
system.cpu0.commit.committedInsts            10000002                       # Number of instructions committed
system.cpu0.commit.committedOps              19299099                       # Number of ops (including micro ops) committed
system.cpu0.commit.committed_per_cycle::samples   1023651838                       # Number of insts commited each cycle
system.cpu0.commit.committed_per_cycle::mean     0.018853                       # Number of insts commited each cycle
system.cpu0.commit.committed_per_cycle::stdev     0.358237                       # Number of insts commited each cycle
system.cpu0.commit.committed_per_cycle::underflows            0      0.00%      0.00% # Number of insts commited each cycle
system.cpu0.commit.committed_per_cycle::0   1019890944     99.63%     99.63% # Number of insts commited each cycle
system.cpu0.commit.committed_per_cycle::1       723822      0.07%     99.70% # Number of insts commited each cycle
system.cpu0.commit.committed_per_cycle::2       364332      0.04%     99.74% # Number of insts commited each cycle
system.cpu0.commit.committed_per_cycle::3       406025      0.04%     99.78% # Number of insts commited each cycle
system.cpu0.commit.committed_per_cycle::4       193538      0.02%     99.80% # Number of insts commited each cycle
system.cpu0.commit.committed_per_cycle::5       139351      0.01%     99.81% # Number of insts commited each cycle
system.cpu0.commit.committed_per_cycle::6       123409      0.01%     99.82% # Number of insts commited each cycle
system.cpu0.commit.committed_per_cycle::7        66159      0.01%     99.83% # Number of insts commited each cycle
system.cpu0.commit.committed_per_cycle::8      1744258      0.17%    100.00% # Number of insts commited each cycle
system.cpu0.commit.committed_per_cycle::overflows            0      0.00%    100.00% # Number of insts commited each cycle
system.cpu0.commit.committed_per_cycle::min_value            0                       # Number of insts commited each cycle
system.cpu0.commit.committed_per_cycle::max_value            8                       # Number of insts commited each cycle
system.cpu0.commit.committed_per_cycle::total   1023651838                       # Number of insts commited each cycle
system.cpu0.commit.fp_insts                    273407                       # Number of committed floating point instructions.
system.cpu0.commit.function_calls              124789                       # Number of function calls committed.
system.cpu0.commit.int_insts                 19104086                       # Number of committed integer instructions.
system.cpu0.commit.loads                      2189330                       # Number of loads committed
system.cpu0.commit.membars                         32                       # Number of memory barriers committed
system.cpu0.commit.op_class_0::No_OpClass        57455      0.30%      0.30% # Class of committed instruction
system.cpu0.commit.op_class_0::IntAlu        15028677     77.87%     78.17% # Class of committed instruction
system.cpu0.commit.op_class_0::IntMult          62846      0.33%     78.50% # Class of committed instruction
system.cpu0.commit.op_class_0::IntDiv          134793      0.70%     79.19% # Class of committed instruction
system.cpu0.commit.op_class_0::FloatAdd         23790      0.12%     79.32% # Class of committed instruction
system.cpu0.commit.op_class_0::FloatCmp             0      0.00%     79.32% # Class of committed instruction
system.cpu0.commit.op_class_0::FloatCvt            32      0.00%     79.32% # Class of committed instruction
system.cpu0.commit.op_class_0::FloatMult            0      0.00%     79.32% # Class of committed instruction
system.cpu0.commit.op_class_0::FloatMultAcc            0      0.00%     79.32% # Class of committed instruction
system.cpu0.commit.op_class_0::FloatDiv             0      0.00%     79.32% # Class of committed instruction
system.cpu0.commit.op_class_0::FloatMisc            0      0.00%     79.32% # Class of committed instruction
system.cpu0.commit.op_class_0::FloatSqrt            0      0.00%     79.32% # Class of committed instruction
system.cpu0.commit.op_class_0::SimdAdd           1040      0.01%     79.32% # Class of committed instruction
system.cpu0.commit.op_class_0::SimdAddAcc            0      0.00%     79.32% # Class of committed instruction
system.cpu0.commit.op_class_0::SimdAlu           1209      0.01%     79.33% # Class of committed instruction
system.cpu0.commit.op_class_0::SimdCmp             20      0.00%     79.33% # Class of committed instruction
system.cpu0.commit.op_class_0::SimdCvt          26664      0.14%     79.47% # Class of committed instruction
system.cpu0.commit.op_class_0::SimdMisc        108790      0.56%     80.03% # Class of committed instruction
system.cpu0.commit.op_class_0::SimdMult             0      0.00%     80.03% # Class of committed instruction
system.cpu0.commit.op_class_0::SimdMultAcc            0      0.00%     80.03% # Class of committed instruction
system.cpu0.commit.op_class_0::SimdShift          475      0.00%     80.03% # Class of committed instruction
system.cpu0.commit.op_class_0::SimdShiftAcc            0      0.00%     80.03% # Class of committed instruction
system.cpu0.commit.op_class_0::SimdDiv              0      0.00%     80.03% # Class of committed instruction
system.cpu0.commit.op_class_0::SimdSqrt             0      0.00%     80.03% # Class of committed instruction
system.cpu0.commit.op_class_0::SimdFloatAdd            0      0.00%     80.03% # Class of committed instruction
system.cpu0.commit.op_class_0::SimdFloatAlu            0      0.00%     80.03% # Class of committed instruction
system.cpu0.commit.op_class_0::SimdFloatCmp            0      0.00%     80.03% # Class of committed instruction
system.cpu0.commit.op_class_0::SimdFloatCvt            0      0.00%     80.03% # Class of committed instruction
system.cpu0.commit.op_class_0::SimdFloatDiv            0      0.00%     80.03% # Class of committed instruction
system.cpu0.commit.op_class_0::SimdFloatMisc            0      0.00%     80.03% # Class of committed instruction
system.cpu0.commit.op_class_0::SimdFloatMult            0      0.00%     80.03% # Class of committed instruction
system.cpu0.commit.op_class_0::SimdFloatMultAcc            0      0.00%     80.03% # Class of committed instruction
system.cpu0.commit.op_class_0::SimdFloatSqrt            0      0.00%     80.03% # Class of committed instruction
system.cpu0.commit.op_class_0::SimdReduceAdd            0      0.00%     80.03% # Class of committed instruction
system.cpu0.commit.op_class_0::SimdReduceAlu            0      0.00%     80.03% # Class of committed instruction
system.cpu0.commit.op_class_0::SimdReduceCmp            0      0.00%     80.03% # Class of committed instruction
system.cpu0.commit.op_class_0::SimdFloatReduceAdd            0      0.00%     80.03% # Class of committed instruction
system.cpu0.commit.op_class_0::SimdFloatReduceCmp            0      0.00%     80.03% # Class of committed instruction
system.cpu0.commit.op_class_0::SimdAes              0      0.00%     80.03% # Class of committed instruction
system.cpu0.commit.op_class_0::SimdAesMix            0      0.00%     80.03% # Class of committed instruction
system.cpu0.commit.op_class_0::SimdSha1Hash            0      0.00%     80.03% # Class of committed instruction
system.cpu0.commit.op_class_0::SimdSha1Hash2            0      0.00%     80.03% # Class of committed instruction
system.cpu0.commit.op_class_0::SimdSha256Hash            0      0.00%     80.03% # Class of committed instruction
system.cpu0.commit.op_class_0::SimdSha256Hash2            0      0.00%     80.03% # Class of committed instruction
system.cpu0.commit.op_class_0::SimdShaSigma2            0      0.00%     80.03% # Class of committed instruction
system.cpu0.commit.op_class_0::SimdShaSigma3            0      0.00%     80.03% # Class of committed instruction
system.cpu0.commit.op_class_0::SimdPredAlu            0      0.00%     80.03% # Class of committed instruction
system.cpu0.commit.op_class_0::MemRead        2126938     11.02%     91.05% # Class of committed instruction
system.cpu0.commit.op_class_0::MemWrite       1627429      8.43%     99.49% # Class of committed instruction
system.cpu0.commit.op_class_0::FloatMemRead        62392      0.32%     99.81% # Class of committed instruction
system.cpu0.commit.op_class_0::FloatMemWrite        36549      0.19%    100.00% # Class of committed instruction
system.cpu0.commit.op_class_0::IprAccess            0      0.00%    100.00% # Class of committed instruction
system.cpu0.commit.op_class_0::InstPrefetch            0      0.00%    100.00% # Class of committed instruction
system.cpu0.commit.op_class_0::total         19299099                       # Class of committed instruction
system.cpu0.commit.refs                       3853308                       # Number of memory references committed
system.cpu0.commit.swp_count                        0                       # Number of s/w prefetches committed
system.cpu0.commit.vec_insts                        0                       # Number of committed Vector instructions.
system.cpu0.committedInsts                   10000002                       # Number of Instructions Simulated
system.cpu0.committedOps                     19299099                       # Number of Ops (including micro ops) Simulated
system.cpu0.cpi                            113.605106                       # CPI: Cycles Per Instruction
system.cpu0.cpi_total                      113.605106                       # CPI: Total CPI of All Threads
system.cpu0.decode.BlockedCycles            662625660                       # Number of cycles decode is blocked
system.cpu0.decode.DecodedInsts              23781430                       # Number of instructions handled by decode
system.cpu0.decode.IdleCycles               358200994                       # Number of cycles decode is idle
system.cpu0.decode.RunCycles                  2365707                       # Number of cycles decode is running
system.cpu0.decode.SquashCycles                 64095                       # Number of cycles decode is squashing
system.cpu0.decode.UnblockCycles               869408                       # Number of cycles decode is unblocking
system.cpu0.dtb.rdAccesses                    2504104                       # TLB accesses on read requests
system.cpu0.dtb.rdMisses                          508                       # TLB misses on read requests
system.cpu0.dtb.wrAccesses                    1742284                       # TLB accesses on write requests
system.cpu0.dtb.wrMisses                          784                       # TLB misses on write requests
system.cpu0.fetch.Branches                    2893114                       # Number of branches that fetch encountered
system.cpu0.fetch.CacheLines                  1730894                       # Number of cache lines fetched
system.cpu0.fetch.Cycles                    341169764                       # Number of cycles fetch has run and was not squashing or blocked
system.cpu0.fetch.IcacheSquashes                 4501                       # Number of outstanding Icache misses that were squashed
system.cpu0.fetch.IcacheWaitRetryStallCycles    627768571                       # Number of stall cycles due to full MSHR
system.cpu0.fetch.Insts                      13008295                       # Number of instructions fetch has processed
system.cpu0.fetch.MiscStallCycles            54297423                       # Number of cycles fetch has spent waiting on interrupts, or bad addresses, or out of MSHRs
system.cpu0.fetch.PendingQuiesceStallCycles            9                       # Number of stall cycles due to pending quiesce instructions
system.cpu0.fetch.SquashCycles                 128190                       # Number of cycles fetch has spent squashing
system.cpu0.fetch.branchRate                 0.002547                       # Number of branch fetches per cycle
system.cpu0.fetch.icacheStallCycles            826002                       # Number of cycles fetch is stalled on an Icache miss
system.cpu0.fetch.predictedBranches           1216606                       # Number of branches that fetch has predicted taken
system.cpu0.fetch.rate                       0.011450                       # Number of inst fetches per cycle
system.cpu0.fetch.rateDist::samples        1024125864                       # Number of instructions fetched each cycle (Total)
system.cpu0.fetch.rateDist::mean             0.024518                       # Number of instructions fetched each cycle (Total)
system.cpu0.fetch.rateDist::stdev            0.414721                       # Number of instructions fetched each cycle (Total)
system.cpu0.fetch.rateDist::underflows              0      0.00%      0.00% # Number of instructions fetched each cycle (Total)
system.cpu0.fetch.rateDist::0              1019969057     99.59%     99.59% # Number of instructions fetched each cycle (Total)
system.cpu0.fetch.rateDist::1                  258050      0.03%     99.62% # Number of instructions fetched each cycle (Total)
system.cpu0.fetch.rateDist::2                  303623      0.03%     99.65% # Number of instructions fetched each cycle (Total)
system.cpu0.fetch.rateDist::3                  378274      0.04%     99.69% # Number of instructions fetched each cycle (Total)
system.cpu0.fetch.rateDist::4                  268943      0.03%     99.71% # Number of instructions fetched each cycle (Total)
system.cpu0.fetch.rateDist::5                  290116      0.03%     99.74% # Number of instructions fetched each cycle (Total)
system.cpu0.fetch.rateDist::6                  210053      0.02%     99.76% # Number of instructions fetched each cycle (Total)
system.cpu0.fetch.rateDist::7                  259495      0.03%     99.79% # Number of instructions fetched each cycle (Total)
system.cpu0.fetch.rateDist::8                 2188253      0.21%    100.00% # Number of instructions fetched each cycle (Total)
system.cpu0.fetch.rateDist::overflows               0      0.00%    100.00% # Number of instructions fetched each cycle (Total)
system.cpu0.fetch.rateDist::min_value               0                       # Number of instructions fetched each cycle (Total)
system.cpu0.fetch.rateDist::max_value               8                       # Number of instructions fetched each cycle (Total)
system.cpu0.fetch.rateDist::total          1024125864                       # Number of instructions fetched each cycle (Total)
system.cpu0.fp_regfile_reads                   339846                       # number of floating regfile reads
system.cpu0.fp_regfile_writes                  221265                       # number of floating regfile writes
system.cpu0.idleCycles                      111925426                       # Total number of cycles that the CPU has spent unscheduled due to idling
system.cpu0.iew.branchMispredicts               77106                       # Number of branch mispredicts detected at execute
system.cpu0.iew.exec_branches                 2336545                       # Number of branches executed
system.cpu0.iew.exec_nop                            0                       # number of nop insts executed
system.cpu0.iew.exec_rate                    0.025532                       # Inst execution rate
system.cpu0.iew.exec_refs                    12101964                       # number of memory reference insts executed
system.cpu0.iew.exec_stores                   1742278                       # Number of stores executed
system.cpu0.iew.exec_swp                            0                       # number of swp insts executed
system.cpu0.iew.iewBlockCycles              657848803                       # Number of cycles IEW is blocking
system.cpu0.iew.iewDispLoadInsts              2773300                       # Number of dispatched load instructions
system.cpu0.iew.iewDispNonSpecInsts               231                       # Number of dispatched non-speculative instructions
system.cpu0.iew.iewDispSquashedInsts             4556                       # Number of squashed instructions skipped by dispatch
system.cpu0.iew.iewDispStoreInsts             1936968                       # Number of dispatched store instructions
system.cpu0.iew.iewDispatchedInsts           22733263                       # Number of instructions dispatched to IQ
system.cpu0.iew.iewExecLoadInsts             10359686                       # Number of load instructions executed
system.cpu0.iew.iewExecSquashedInsts           222757                       # Number of squashed instructions skipped in execute
system.cpu0.iew.iewExecutedInsts             29005164                       # Number of executed instructions
system.cpu0.iew.iewIQFullEvents                 17433                       # Number of times the IQ has become full, causing a stall
system.cpu0.iew.iewIdleCycles                       0                       # Number of cycles IEW is idle
system.cpu0.iew.iewLSQFullEvents                22314                       # Number of times the LSQ has become full, causing a stall
system.cpu0.iew.iewSquashCycles                 64095                       # Number of cycles IEW is squashing
system.cpu0.iew.iewUnblockCycles                53700                       # Number of cycles IEW is unblocking
system.cpu0.iew.lsq.thread0.blockedLoads            0                       # Number of blocked loads due to partial load-store forwarding
system.cpu0.iew.lsq.thread0.cacheBlocked      4000231                       # Number of times an access to memory failed due to the cache being blocked
system.cpu0.iew.lsq.thread0.forwLoads          553711                       # Number of loads that had data forwarded from stores
system.cpu0.iew.lsq.thread0.ignoredResponses          328                       # Number of memory responses ignored because the instruction is squashed
system.cpu0.iew.lsq.thread0.invAddrLoads            0                       # Number of loads ignored due to an invalid address
system.cpu0.iew.lsq.thread0.invAddrSwpfs            0                       # Number of software prefetches ignored due to an invalid address
system.cpu0.iew.lsq.thread0.memOrderViolation          679                       # Number of memory ordering violations
system.cpu0.iew.lsq.thread0.rescheduledLoads            8                       # Number of loads that were rescheduled
system.cpu0.iew.lsq.thread0.squashedLoads       583966                       # Number of loads squashed
system.cpu0.iew.lsq.thread0.squashedStores       272987                       # Number of stores squashed
system.cpu0.iew.memOrderViolationEvents           679                       # Number of memory order violations
system.cpu0.iew.predictedNotTakenIncorrect        74944                       # Number of branches that were predicted not taken incorrectly
system.cpu0.iew.predictedTakenIncorrect          2162                       # Number of branches that were predicted taken incorrectly
system.cpu0.iew.wb_consumers                 27087183                       # num instructions consuming a value
system.cpu0.iew.wb_count                     20973168                       # cumulative count of insts written-back
system.cpu0.iew.wb_fanout                    0.559819                       # average fanout of values written-back
system.cpu0.iew.wb_producers                 15163915                       # num instructions producing a value
system.cpu0.iew.wb_rate                      0.018461                       # insts written-back per cycle
system.cpu0.iew.wb_sent                      20991287                       # cumulative count of insts sent to commit
system.cpu0.int_regfile_reads                47414049                       # number of integer regfile reads
system.cpu0.int_regfile_writes               16962820                       # number of integer regfile writes
system.cpu0.ipc                              0.008802                       # IPC: Instructions Per Cycle
system.cpu0.ipc_total                        0.008802                       # IPC: Total IPC of All Threads
system.cpu0.iq.FU_type_0::No_OpClass            93669      0.32%      0.32% # Type of FU issued
system.cpu0.iq.FU_type_0::IntAlu             16541827     56.60%     56.92% # Type of FU issued
system.cpu0.iq.FU_type_0::IntMult               65401      0.22%     57.14% # Type of FU issued
system.cpu0.iq.FU_type_0::IntDiv               135223      0.46%     57.60% # Type of FU issued
system.cpu0.iq.FU_type_0::FloatAdd              24399      0.08%     57.69% # Type of FU issued
system.cpu0.iq.FU_type_0::FloatCmp                  0      0.00%     57.69% # Type of FU issued
system.cpu0.iq.FU_type_0::FloatCvt                 32      0.00%     57.69% # Type of FU issued
system.cpu0.iq.FU_type_0::FloatMult                 0      0.00%     57.69% # Type of FU issued
system.cpu0.iq.FU_type_0::FloatMultAcc              0      0.00%     57.69% # Type of FU issued
system.cpu0.iq.FU_type_0::FloatDiv                  0      0.00%     57.69% # Type of FU issued
system.cpu0.iq.FU_type_0::FloatMisc                 0      0.00%     57.69% # Type of FU issued
system.cpu0.iq.FU_type_0::FloatSqrt                 0      0.00%     57.69% # Type of FU issued
system.cpu0.iq.FU_type_0::SimdAdd                1200      0.00%     57.69% # Type of FU issued
system.cpu0.iq.FU_type_0::SimdAddAcc                0      0.00%     57.69% # Type of FU issued
system.cpu0.iq.FU_type_0::SimdAlu                2374      0.01%     57.70% # Type of FU issued
system.cpu0.iq.FU_type_0::SimdCmp                  26      0.00%     57.70% # Type of FU issued
system.cpu0.iq.FU_type_0::SimdCvt               27542      0.09%     57.79% # Type of FU issued
system.cpu0.iq.FU_type_0::SimdMisc             109340      0.37%     58.17% # Type of FU issued
system.cpu0.iq.FU_type_0::SimdMult                  0      0.00%     58.17% # Type of FU issued
system.cpu0.iq.FU_type_0::SimdMultAcc               0      0.00%     58.17% # Type of FU issued
system.cpu0.iq.FU_type_0::SimdShift               816      0.00%     58.17% # Type of FU issued
system.cpu0.iq.FU_type_0::SimdShiftAcc              0      0.00%     58.17% # Type of FU issued
system.cpu0.iq.FU_type_0::SimdDiv                   0      0.00%     58.17% # Type of FU issued
system.cpu0.iq.FU_type_0::SimdSqrt                  0      0.00%     58.17% # Type of FU issued
system.cpu0.iq.FU_type_0::SimdFloatAdd              0      0.00%     58.17% # Type of FU issued
system.cpu0.iq.FU_type_0::SimdFloatAlu              0      0.00%     58.17% # Type of FU issued
system.cpu0.iq.FU_type_0::SimdFloatCmp              0      0.00%     58.17% # Type of FU issued
system.cpu0.iq.FU_type_0::SimdFloatCvt              1      0.00%     58.17% # Type of FU issued
system.cpu0.iq.FU_type_0::SimdFloatDiv              0      0.00%     58.17% # Type of FU issued
system.cpu0.iq.FU_type_0::SimdFloatMisc             0      0.00%     58.17% # Type of FU issued
system.cpu0.iq.FU_type_0::SimdFloatMult             0      0.00%     58.17% # Type of FU issued
system.cpu0.iq.FU_type_0::SimdFloatMultAcc            0      0.00%     58.17% # Type of FU issued
system.cpu0.iq.FU_type_0::SimdFloatSqrt             0      0.00%     58.17% # Type of FU issued
system.cpu0.iq.FU_type_0::SimdReduceAdd             0      0.00%     58.17% # Type of FU issued
system.cpu0.iq.FU_type_0::SimdReduceAlu             0      0.00%     58.17% # Type of FU issued
system.cpu0.iq.FU_type_0::SimdReduceCmp             0      0.00%     58.17% # Type of FU issued
system.cpu0.iq.FU_type_0::SimdFloatReduceAdd            0      0.00%     58.17% # Type of FU issued
system.cpu0.iq.FU_type_0::SimdFloatReduceCmp            0      0.00%     58.17% # Type of FU issued
system.cpu0.iq.FU_type_0::SimdAes                   0      0.00%     58.17% # Type of FU issued
system.cpu0.iq.FU_type_0::SimdAesMix                0      0.00%     58.17% # Type of FU issued
system.cpu0.iq.FU_type_0::SimdSha1Hash              0      0.00%     58.17% # Type of FU issued
system.cpu0.iq.FU_type_0::SimdSha1Hash2             0      0.00%     58.17% # Type of FU issued
system.cpu0.iq.FU_type_0::SimdSha256Hash            0      0.00%     58.17% # Type of FU issued
system.cpu0.iq.FU_type_0::SimdSha256Hash2            0      0.00%     58.17% # Type of FU issued
system.cpu0.iq.FU_type_0::SimdShaSigma2             0      0.00%     58.17% # Type of FU issued
system.cpu0.iq.FU_type_0::SimdShaSigma3             0      0.00%     58.17% # Type of FU issued
system.cpu0.iq.FU_type_0::SimdPredAlu               0      0.00%     58.17% # Type of FU issued
system.cpu0.iq.FU_type_0::MemRead             9995825     34.20%     92.37% # Type of FU issued
system.cpu0.iq.FU_type_0::MemWrite            1718252      5.88%     98.25% # Type of FU issued
system.cpu0.iq.FU_type_0::FloatMemRead         470059      1.61%     99.86% # Type of FU issued
system.cpu0.iq.FU_type_0::FloatMemWrite         41942      0.14%    100.00% # Type of FU issued
system.cpu0.iq.FU_type_0::IprAccess                 0      0.00%    100.00% # Type of FU issued
system.cpu0.iq.FU_type_0::InstPrefetch              0      0.00%    100.00% # Type of FU issued
system.cpu0.iq.FU_type_0::total              29227928                       # Type of FU issued
system.cpu0.iq.fp_alu_accesses                 706196                       # Number of floating point alu accesses
system.cpu0.iq.fp_inst_queue_reads            1407562                       # Number of floating instruction queue reads
system.cpu0.iq.fp_inst_queue_wakeup_accesses       288685                       # Number of floating instruction queue wakeup accesses
system.cpu0.iq.fp_inst_queue_writes            380359                       # Number of floating instruction queue writes
system.cpu0.iq.fu_busy_cnt                    1513163                       # FU busy when requested
system.cpu0.iq.fu_busy_rate                  0.051771                       # FU busy rate (busy events/executed inst)
system.cpu0.iq.fu_full::No_OpClass                  0      0.00%      0.00% # attempts to use FU when none available
system.cpu0.iq.fu_full::IntAlu                 323774     21.40%     21.40% # attempts to use FU when none available
system.cpu0.iq.fu_full::IntMult                     0      0.00%     21.40% # attempts to use FU when none available
system.cpu0.iq.fu_full::IntDiv                      0      0.00%     21.40% # attempts to use FU when none available
system.cpu0.iq.fu_full::FloatAdd                    0      0.00%     21.40% # attempts to use FU when none available
system.cpu0.iq.fu_full::FloatCmp                    0      0.00%     21.40% # attempts to use FU when none available
system.cpu0.iq.fu_full::FloatCvt                    0      0.00%     21.40% # attempts to use FU when none available
system.cpu0.iq.fu_full::FloatMult                   0      0.00%     21.40% # attempts to use FU when none available
system.cpu0.iq.fu_full::FloatMultAcc                0      0.00%     21.40% # attempts to use FU when none available
system.cpu0.iq.fu_full::FloatDiv                    0      0.00%     21.40% # attempts to use FU when none available
system.cpu0.iq.fu_full::FloatMisc                   0      0.00%     21.40% # attempts to use FU when none available
system.cpu0.iq.fu_full::FloatSqrt                   0      0.00%     21.40% # attempts to use FU when none available
system.cpu0.iq.fu_full::SimdAdd                     1      0.00%     21.40% # attempts to use FU when none available
system.cpu0.iq.fu_full::SimdAddAcc                  0      0.00%     21.40% # attempts to use FU when none available
system.cpu0.iq.fu_full::SimdAlu                    17      0.00%     21.40% # attempts to use FU when none available
system.cpu0.iq.fu_full::SimdCmp                     0      0.00%     21.40% # attempts to use FU when none available
system.cpu0.iq.fu_full::SimdCvt                     5      0.00%     21.40% # attempts to use FU when none available
system.cpu0.iq.fu_full::SimdMisc                    2      0.00%     21.40% # attempts to use FU when none available
system.cpu0.iq.fu_full::SimdMult                    0      0.00%     21.40% # attempts to use FU when none available
system.cpu0.iq.fu_full::SimdMultAcc                 0      0.00%     21.40% # attempts to use FU when none available
system.cpu0.iq.fu_full::SimdShift                   0      0.00%     21.40% # attempts to use FU when none available
system.cpu0.iq.fu_full::SimdShiftAcc                0      0.00%     21.40% # attempts to use FU when none available
system.cpu0.iq.fu_full::SimdDiv                     0      0.00%     21.40% # attempts to use FU when none available
system.cpu0.iq.fu_full::SimdSqrt                    0      0.00%     21.40% # attempts to use FU when none available
system.cpu0.iq.fu_full::SimdFloatAdd                0      0.00%     21.40% # attempts to use FU when none available
system.cpu0.iq.fu_full::SimdFloatAlu                0      0.00%     21.40% # attempts to use FU when none available
system.cpu0.iq.fu_full::SimdFloatCmp                0      0.00%     21.40% # attempts to use FU when none available
system.cpu0.iq.fu_full::SimdFloatCvt                0      0.00%     21.40% # attempts to use FU when none available
system.cpu0.iq.fu_full::SimdFloatDiv                0      0.00%     21.40% # attempts to use FU when none available
system.cpu0.iq.fu_full::SimdFloatMisc               0      0.00%     21.40% # attempts to use FU when none available
system.cpu0.iq.fu_full::SimdFloatMult               0      0.00%     21.40% # attempts to use FU when none available
system.cpu0.iq.fu_full::SimdFloatMultAcc            0      0.00%     21.40% # attempts to use FU when none available
system.cpu0.iq.fu_full::SimdFloatSqrt               0      0.00%     21.40% # attempts to use FU when none available
system.cpu0.iq.fu_full::SimdReduceAdd               0      0.00%     21.40% # attempts to use FU when none available
system.cpu0.iq.fu_full::SimdReduceAlu               0      0.00%     21.40% # attempts to use FU when none available
system.cpu0.iq.fu_full::SimdReduceCmp               0      0.00%     21.40% # attempts to use FU when none available
system.cpu0.iq.fu_full::SimdFloatReduceAdd            0      0.00%     21.40% # attempts to use FU when none available
system.cpu0.iq.fu_full::SimdFloatReduceCmp            0      0.00%     21.40% # attempts to use FU when none available
system.cpu0.iq.fu_full::SimdAes                     0      0.00%     21.40% # attempts to use FU when none available
system.cpu0.iq.fu_full::SimdAesMix                  0      0.00%     21.40% # attempts to use FU when none available
system.cpu0.iq.fu_full::SimdSha1Hash                0      0.00%     21.40% # attempts to use FU when none available
system.cpu0.iq.fu_full::SimdSha1Hash2               0      0.00%     21.40% # attempts to use FU when none available
system.cpu0.iq.fu_full::SimdSha256Hash              0      0.00%     21.40% # attempts to use FU when none available
system.cpu0.iq.fu_full::SimdSha256Hash2             0      0.00%     21.40% # attempts to use FU when none available
system.cpu0.iq.fu_full::SimdShaSigma2               0      0.00%     21.40% # attempts to use FU when none available
system.cpu0.iq.fu_full::SimdShaSigma3               0      0.00%     21.40% # attempts to use FU when none available
system.cpu0.iq.fu_full::SimdPredAlu                 0      0.00%     21.40% # attempts to use FU when none available
system.cpu0.iq.fu_full::MemRead                800823     52.92%     74.32% # attempts to use FU when none available
system.cpu0.iq.fu_full::MemWrite               372621     24.63%     98.95% # attempts to use FU when none available
system.cpu0.iq.fu_full::FloatMemRead            12494      0.83%     99.77% # attempts to use FU when none available
system.cpu0.iq.fu_full::FloatMemWrite            3426      0.23%    100.00% # attempts to use FU when none available
system.cpu0.iq.fu_full::IprAccess                   0      0.00%    100.00% # attempts to use FU when none available
system.cpu0.iq.fu_full::InstPrefetch                0      0.00%    100.00% # attempts to use FU when none available
system.cpu0.iq.int_alu_accesses              29941226                       # Number of integer alu accesses
system.cpu0.iq.int_inst_queue_reads        1082916138                       # Number of integer instruction queue reads
system.cpu0.iq.int_inst_queue_wakeup_accesses     20684483                       # Number of integer instruction queue wakeup accesses
system.cpu0.iq.int_inst_queue_writes         25787578                       # Number of integer instruction queue writes
system.cpu0.iq.iqInstsAdded                  22732777                       # Number of instructions added to the IQ (excludes non-spec)
system.cpu0.iq.iqInstsIssued                 29227928                       # Number of instructions issued
system.cpu0.iq.iqNonSpecInstsAdded                486                       # Number of non-speculative instructions added to the IQ
system.cpu0.iq.iqSquashedInstsExamined        3434059                       # Number of squashed instructions iterated over during squash; mainly for profiling
system.cpu0.iq.iqSquashedInstsIssued           228824                       # Number of squashed instructions issued
system.cpu0.iq.iqSquashedNonSpecRemoved           373                       # Number of squashed non-spec instructions that were removed
system.cpu0.iq.iqSquashedOperandsExamined      5760498                       # Number of squashed operands that are examined and possibly removed from graph
system.cpu0.iq.issued_per_cycle::samples   1024125864                       # Number of insts issued each cycle
system.cpu0.iq.issued_per_cycle::mean        0.028539                       # Number of insts issued each cycle
system.cpu0.iq.issued_per_cycle::stdev       0.419245                       # Number of insts issued each cycle
system.cpu0.iq.issued_per_cycle::underflows            0      0.00%      0.00% # Number of insts issued each cycle
system.cpu0.iq.issued_per_cycle::0         1018610940     99.46%     99.46% # Number of insts issued each cycle
system.cpu0.iq.issued_per_cycle::1             313107      0.03%     99.49% # Number of insts issued each cycle
system.cpu0.iq.issued_per_cycle::2             427930      0.04%     99.53% # Number of insts issued each cycle
system.cpu0.iq.issued_per_cycle::3             484146      0.05%     99.58% # Number of insts issued each cycle
system.cpu0.iq.issued_per_cycle::4             781156      0.08%     99.66% # Number of insts issued each cycle
system.cpu0.iq.issued_per_cycle::5             760871      0.07%     99.73% # Number of insts issued each cycle
system.cpu0.iq.issued_per_cycle::6             823905      0.08%     99.81% # Number of insts issued each cycle
system.cpu0.iq.issued_per_cycle::7             656358      0.06%     99.88% # Number of insts issued each cycle
system.cpu0.iq.issued_per_cycle::8            1267451      0.12%    100.00% # Number of insts issued each cycle
system.cpu0.iq.issued_per_cycle::overflows            0      0.00%    100.00% # Number of insts issued each cycle
system.cpu0.iq.issued_per_cycle::min_value            0                       # Number of insts issued each cycle
system.cpu0.iq.issued_per_cycle::max_value            8                       # Number of insts issued each cycle
system.cpu0.iq.issued_per_cycle::total     1024125864                       # Number of insts issued each cycle
system.cpu0.iq.rate                          0.025728                       # Inst issue rate
system.cpu0.iq.vec_alu_accesses                     0                       # Number of vector alu accesses
system.cpu0.iq.vec_inst_queue_reads                 0                       # Number of vector instruction queue reads
system.cpu0.iq.vec_inst_queue_wakeup_accesses            0                       # Number of vector instruction queue wakeup accesses
system.cpu0.iq.vec_inst_queue_writes                0                       # Number of vector instruction queue writes
system.cpu0.itb.rdAccesses                          0                       # TLB accesses on read requests
system.cpu0.itb.rdMisses                            0                       # TLB misses on read requests
system.cpu0.itb.wrAccesses                    1730894                       # TLB accesses on write requests
system.cpu0.itb.wrMisses                          324                       # TLB misses on write requests
system.cpu0.memDep0.conflictingLoads           386585                       # Number of conflicting loads.
system.cpu0.memDep0.conflictingStores          204877                       # Number of conflicting stores.
system.cpu0.memDep0.insertedLoads             2773300                       # Number of loads inserted to the mem dependence unit.
system.cpu0.memDep0.insertedStores            1936968                       # Number of stores inserted to the mem dependence unit.
system.cpu0.misc_regfile_reads               16942525                       # number of misc regfile reads
system.cpu0.misc_regfile_writes                    18                       # number of misc regfile writes
system.cpu0.numCycles                      1136051290                       # number of cpu cycles simulated
system.cpu0.numWorkItemsCompleted                   0                       # number of work items this cpu completed
system.cpu0.numWorkItemsStarted                     0                       # number of work items this cpu started
system.cpu0.rename.BlockCycles              659579902                       # Number of cycles rename is blocking
system.cpu0.rename.CommittedMaps             21449799                       # Number of HB maps that are committed
system.cpu0.rename.FullRegisterEvents              11                       # Number of times there has been no free registers
system.cpu0.rename.IQFullEvents                987386                       # Number of times rename has blocked due to IQ full
system.cpu0.rename.IdleCycles               358567631                       # Number of cycles rename is idle
system.cpu0.rename.LQFullEvents                  5132                       # Number of times rename has blocked due to LQ full
system.cpu0.rename.ROBFullEvents                33056                       # Number of times rename has blocked due to ROB full
system.cpu0.rename.RenameLookups             60326833                       # Number of register rename lookups that rename has made
system.cpu0.rename.RenamedInsts              23381020                       # Number of instructions processed by rename
system.cpu0.rename.RenamedOperands           25797423                       # Number of destination operands rename has renamed
system.cpu0.rename.RunCycles                  2854263                       # Number of cycles rename is running
system.cpu0.rename.SQFullEvents               1375268                       # Number of times rename has blocked due to SQ full
system.cpu0.rename.SquashCycles                 64095                       # Number of cycles rename is squashing
system.cpu0.rename.UnblockCycles              2589269                       # Number of cycles rename is unblocking
system.cpu0.rename.UndoneMaps                 4347469                       # Number of HB maps that are undone due to squashing
system.cpu0.rename.fp_rename_lookups           376324                       # Number of floating rename lookups
system.cpu0.rename.int_rename_lookups        35785159                       # Number of integer rename lookups
system.cpu0.rename.serializeStallCycles        470704                       # count of cycles rename stalled for serializing inst
system.cpu0.rename.serializingInsts               135                       # count of serializing insts renamed
system.cpu0.rename.skidInsts                  3860133                       # count of insts added to the skid buffer
system.cpu0.rename.tempSerializingInsts           118                       # count of temporary serializing insts renamed
system.cpu0.rob.rob_reads                  1044640744                       # The number of ROB reads
system.cpu0.rob.rob_writes                   45942294                       # The number of ROB writes
system.cpu0.timesIdled                           7004                       # Number of times that the entire CPU went into an idle state and unscheduled itself
system.cpu0.workload.numSyscalls                   47                       # Number of system calls
system.cpu1.branchPred.BTBCorrect                   0                       # Number of correct BTB predictions (this stat may not work properly.
system.cpu1.branchPred.BTBHitPct             0.000000                       # BTB Hit Percentage
system.cpu1.branchPred.BTBHits                      0                       # Number of BTB hits
system.cpu1.branchPred.BTBLookups             1748056                       # Number of BTB lookups
system.cpu1.branchPred.RASInCorrect                 7                       # Number of incorrect RAS predictions.
system.cpu1.branchPred.condIncorrect            42445                       # Number of conditional branches incorrect
system.cpu1.branchPred.condPredicted          1815235                       # Number of conditional branches predicted
system.cpu1.branchPred.indirectHits            792891                       # Number of indirect target hits.
system.cpu1.branchPred.indirectLookups        1748056                       # Number of indirect predictor lookups.
system.cpu1.branchPred.indirectMisses          955165                       # Number of indirect misses.
system.cpu1.branchPred.lookups                2056483                       # Number of BP lookups
system.cpu1.branchPred.usedRAS                 110692                       # Number of times the RAS was used to get a target.
system.cpu1.branchPredindirectMispredicted        37030                       # Number of mispredicted indirect branches.
system.cpu1.cache.hitRatio                   0.991292                       # The ratio of hits to the total accesses to the cache
system.cpu1.cache.hits                        3809016                       # Number of hits
system.cpu1.cache.missLatency::samples          33460                       # Ticks for misses to the cache
system.cpu1.cache.missLatency::mean      16911643.454871                       # Ticks for misses to the cache
system.cpu1.cache.missLatency::gmean     8826268.775545                       # Ticks for misses to the cache
system.cpu1.cache.missLatency::stdev     22114494.502095                       # Ticks for misses to the cache
system.cpu1.cache.missLatency::0-1.67772e+07        24155     72.19%     72.19% # Ticks for misses to the cache
system.cpu1.cache.missLatency::1.67772e+07-3.35544e+07         5978     17.87%     90.06% # Ticks for misses to the cache
system.cpu1.cache.missLatency::3.35544e+07-5.03316e+07          996      2.98%     93.03% # Ticks for misses to the cache
system.cpu1.cache.missLatency::5.03316e+07-6.71089e+07          169      0.51%     93.54% # Ticks for misses to the cache
system.cpu1.cache.missLatency::6.71089e+07-8.38861e+07          750      2.24%     95.78% # Ticks for misses to the cache
system.cpu1.cache.missLatency::8.38861e+07-1.00663e+08          926      2.77%     98.55% # Ticks for misses to the cache
system.cpu1.cache.missLatency::1.00663e+08-1.17441e+08          338      1.01%     99.56% # Ticks for misses to the cache
system.cpu1.cache.missLatency::1.17441e+08-1.34218e+08          112      0.33%     99.89% # Ticks for misses to the cache
system.cpu1.cache.missLatency::1.34218e+08-1.50995e+08           27      0.08%     99.97% # Ticks for misses to the cache
system.cpu1.cache.missLatency::1.50995e+08-1.67772e+08            6      0.02%     99.99% # Ticks for misses to the cache
system.cpu1.cache.missLatency::1.67772e+08-1.84549e+08            3      0.01%    100.00% # Ticks for misses to the cache
system.cpu1.cache.missLatency::1.84549e+08-2.01327e+08            0      0.00%    100.00% # Ticks for misses to the cache
system.cpu1.cache.missLatency::2.01327e+08-2.18104e+08            0      0.00%    100.00% # Ticks for misses to the cache
system.cpu1.cache.missLatency::2.18104e+08-2.34881e+08            0      0.00%    100.00% # Ticks for misses to the cache
system.cpu1.cache.missLatency::2.34881e+08-2.51658e+08            0      0.00%    100.00% # Ticks for misses to the cache
system.cpu1.cache.missLatency::2.51658e+08-2.68435e+08            0      0.00%    100.00% # Ticks for misses to the cache
system.cpu1.cache.missLatency::total            33460                       # Ticks for misses to the cache
system.cpu1.cache.misses                        33461                       # Number of misses
system.cpu1.cc_regfile_reads                  8936915                       # number of cc regfile reads
system.cpu1.cc_regfile_writes                 4382706                       # number of cc regfile writes
system.cpu1.commit.amos                             0                       # Number of atomic instructions committed
system.cpu1.commit.branchMispredicts            42445                       # The number of times a branch was mispredicted
system.cpu1.commit.branches                   1580271                       # Number of branches committed
system.cpu1.commit.bw_lim_events              1222657                       # number cycles where commit BW limit reached
system.cpu1.commit.commitNonSpecStalls            111                       # The number of times commit has been forced to stall to communicate backwards
system.cpu1.commit.commitSquashedInsts        2666697                       # The number of squashed insts skipped by commit
system.cpu1.commit.committedInsts             7151191                       # Number of instructions committed
system.cpu1.commit.committedOps              13805897                       # Number of ops (including micro ops) committed
system.cpu1.commit.committed_per_cycle::samples   1025318309                       # Number of insts commited each cycle
system.cpu1.commit.committed_per_cycle::mean     0.013465                       # Number of insts commited each cycle
system.cpu1.commit.committed_per_cycle::stdev     0.301074                       # Number of insts commited each cycle
system.cpu1.commit.committed_per_cycle::underflows            0      0.00%      0.00% # Number of insts commited each cycle
system.cpu1.commit.committed_per_cycle::0   1022554673     99.73%     99.73% # Number of insts commited each cycle
system.cpu1.commit.committed_per_cycle::1       547900      0.05%     99.78% # Number of insts commited each cycle
system.cpu1.commit.committed_per_cycle::2       299827      0.03%     99.81% # Number of insts commited each cycle
system.cpu1.commit.committed_per_cycle::3       314919      0.03%     99.84% # Number of insts commited each cycle
system.cpu1.commit.committed_per_cycle::4       140995      0.01%     99.86% # Number of insts commited each cycle
system.cpu1.commit.committed_per_cycle::5       109359      0.01%     99.87% # Number of insts commited each cycle
system.cpu1.commit.committed_per_cycle::6        74298      0.01%     99.88% # Number of insts commited each cycle
system.cpu1.commit.committed_per_cycle::7        53681      0.01%     99.88% # Number of insts commited each cycle
system.cpu1.commit.committed_per_cycle::8      1222657      0.12%    100.00% # Number of insts commited each cycle
system.cpu1.commit.committed_per_cycle::overflows            0      0.00%    100.00% # Number of insts commited each cycle
system.cpu1.commit.committed_per_cycle::min_value            0                       # Number of insts commited each cycle
system.cpu1.commit.committed_per_cycle::max_value            8                       # Number of insts commited each cycle
system.cpu1.commit.committed_per_cycle::total   1025318309                       # Number of insts commited each cycle
system.cpu1.commit.fp_insts                    199992                       # Number of committed floating point instructions.
system.cpu1.commit.function_calls               90340                       # Number of function calls committed.
system.cpu1.commit.int_insts                 13663255                       # Number of committed integer instructions.
system.cpu1.commit.loads                      1578896                       # Number of loads committed
system.cpu1.commit.membars                         32                       # Number of memory barriers committed
system.cpu1.commit.op_class_0::No_OpClass        41798      0.30%      0.30% # Class of committed instruction
system.cpu1.commit.op_class_0::IntAlu        10728558     77.71%     78.01% # Class of committed instruction
system.cpu1.commit.op_class_0::IntMult          43112      0.31%     78.32% # Class of committed instruction
system.cpu1.commit.op_class_0::IntDiv           96761      0.70%     79.03% # Class of committed instruction
system.cpu1.commit.op_class_0::FloatAdd         17229      0.12%     79.15% # Class of committed instruction
system.cpu1.commit.op_class_0::FloatCmp             0      0.00%     79.15% # Class of committed instruction
system.cpu1.commit.op_class_0::FloatCvt            32      0.00%     79.15% # Class of committed instruction
system.cpu1.commit.op_class_0::FloatMult            0      0.00%     79.15% # Class of committed instruction
system.cpu1.commit.op_class_0::FloatMultAcc            0      0.00%     79.15% # Class of committed instruction
system.cpu1.commit.op_class_0::FloatDiv             0      0.00%     79.15% # Class of committed instruction
system.cpu1.commit.op_class_0::FloatMisc            0      0.00%     79.15% # Class of committed instruction
system.cpu1.commit.op_class_0::FloatSqrt            0      0.00%     79.15% # Class of committed instruction
system.cpu1.commit.op_class_0::SimdAdd           1040      0.01%     79.16% # Class of committed instruction
system.cpu1.commit.op_class_0::SimdAddAcc            0      0.00%     79.16% # Class of committed instruction
system.cpu1.commit.op_class_0::SimdAlu           1209      0.01%     79.17% # Class of committed instruction
system.cpu1.commit.op_class_0::SimdCmp             20      0.00%     79.17% # Class of committed instruction
system.cpu1.commit.op_class_0::SimdCvt          19690      0.14%     79.31% # Class of committed instruction
system.cpu1.commit.op_class_0::SimdMisc         78842      0.57%     79.88% # Class of committed instruction
system.cpu1.commit.op_class_0::SimdMult             0      0.00%     79.88% # Class of committed instruction
system.cpu1.commit.op_class_0::SimdMultAcc            0      0.00%     79.88% # Class of committed instruction
system.cpu1.commit.op_class_0::SimdShift          475      0.00%     79.88% # Class of committed instruction
system.cpu1.commit.op_class_0::SimdShiftAcc            0      0.00%     79.88% # Class of committed instruction
system.cpu1.commit.op_class_0::SimdDiv              0      0.00%     79.88% # Class of committed instruction
system.cpu1.commit.op_class_0::SimdSqrt             0      0.00%     79.88% # Class of committed instruction
system.cpu1.commit.op_class_0::SimdFloatAdd            0      0.00%     79.88% # Class of committed instruction
system.cpu1.commit.op_class_0::SimdFloatAlu            0      0.00%     79.88% # Class of committed instruction
system.cpu1.commit.op_class_0::SimdFloatCmp            0      0.00%     79.88% # Class of committed instruction
system.cpu1.commit.op_class_0::SimdFloatCvt            0      0.00%     79.88% # Class of committed instruction
system.cpu1.commit.op_class_0::SimdFloatDiv            0      0.00%     79.88% # Class of committed instruction
system.cpu1.commit.op_class_0::SimdFloatMisc            0      0.00%     79.88% # Class of committed instruction
system.cpu1.commit.op_class_0::SimdFloatMult            0      0.00%     79.88% # Class of committed instruction
system.cpu1.commit.op_class_0::SimdFloatMultAcc            0      0.00%     79.88% # Class of committed instruction
system.cpu1.commit.op_class_0::SimdFloatSqrt            0      0.00%     79.88% # Class of committed instruction
system.cpu1.commit.op_class_0::SimdReduceAdd            0      0.00%     79.88% # Class of committed instruction
system.cpu1.commit.op_class_0::SimdReduceAlu            0      0.00%     79.88% # Class of committed instruction
system.cpu1.commit.op_class_0::SimdReduceCmp            0      0.00%     79.88% # Class of committed instruction
system.cpu1.commit.op_class_0::SimdFloatReduceAdd            0      0.00%     79.88% # Class of committed instruction
system.cpu1.commit.op_class_0::SimdFloatReduceCmp            0      0.00%     79.88% # Class of committed instruction
system.cpu1.commit.op_class_0::SimdAes              0      0.00%     79.88% # Class of committed instruction
system.cpu1.commit.op_class_0::SimdAesMix            0      0.00%     79.88% # Class of committed instruction
system.cpu1.commit.op_class_0::SimdSha1Hash            0      0.00%     79.88% # Class of committed instruction
system.cpu1.commit.op_class_0::SimdSha1Hash2            0      0.00%     79.88% # Class of committed instruction
system.cpu1.commit.op_class_0::SimdSha256Hash            0      0.00%     79.88% # Class of committed instruction
system.cpu1.commit.op_class_0::SimdSha256Hash2            0      0.00%     79.88% # Class of committed instruction
system.cpu1.commit.op_class_0::SimdShaSigma2            0      0.00%     79.88% # Class of committed instruction
system.cpu1.commit.op_class_0::SimdShaSigma3            0      0.00%     79.88% # Class of committed instruction
system.cpu1.commit.op_class_0::SimdPredAlu            0      0.00%     79.88% # Class of committed instruction
system.cpu1.commit.op_class_0::MemRead        1533316     11.11%     90.99% # Class of committed instruction
system.cpu1.commit.op_class_0::MemWrite       1171524      8.49%     99.48% # Class of committed instruction
system.cpu1.commit.op_class_0::FloatMemRead        45580      0.33%     99.81% # Class of committed instruction
system.cpu1.commit.op_class_0::FloatMemWrite        26711      0.19%    100.00% # Class of committed instruction
system.cpu1.commit.op_class_0::IprAccess            0      0.00%    100.00% # Class of committed instruction
system.cpu1.commit.op_class_0::InstPrefetch            0      0.00%    100.00% # Class of committed instruction
system.cpu1.commit.op_class_0::total         13805897                       # Class of committed instruction
system.cpu1.commit.refs                       2777131                       # Number of memory references committed
system.cpu1.commit.swp_count                        0                       # Number of s/w prefetches committed
system.cpu1.commit.vec_insts                        0                       # Number of committed Vector instructions.
system.cpu1.committedInsts                    7151191                       # Number of Instructions Simulated
system.cpu1.committedOps                     13805897                       # Number of Ops (including micro ops) Simulated
system.cpu1.cpi                            158.861830                       # CPI: Cycles Per Instruction
system.cpu1.cpi_total                      158.861830                       # CPI: Total CPI of All Threads
system.cpu1.decode.BlockedCycles            674128609                       # Number of cycles decode is blocked
system.cpu1.decode.DecodedInsts              17073218                       # Number of instructions handled by decode
system.cpu1.decode.IdleCycles               349207140                       # Number of cycles decode is idle
system.cpu1.decode.RunCycles                  1644907                       # Number of cycles decode is running
system.cpu1.decode.SquashCycles                 42917                       # Number of cycles decode is squashing
system.cpu1.decode.UnblockCycles               666318                       # Number of cycles decode is unblocking
system.cpu1.dtb.rdAccesses                    1823081                       # TLB accesses on read requests
system.cpu1.dtb.rdMisses                          445                       # TLB misses on read requests
system.cpu1.dtb.wrAccesses                    1290534                       # TLB accesses on write requests
system.cpu1.dtb.wrMisses                          588                       # TLB misses on write requests
system.cpu1.fetch.Branches                    2056483                       # Number of branches that fetch encountered
system.cpu1.fetch.CacheLines                  1319480                       # Number of cache lines fetched
system.cpu1.fetch.Cycles                    350793766                       # Number of cycles fetch has run and was not squashing or blocked
system.cpu1.fetch.IcacheSquashes                 3391                       # Number of outstanding Icache misses that were squashed
system.cpu1.fetch.IcacheWaitRetryStallCycles    619508505                       # Number of stall cycles due to full MSHR
system.cpu1.fetch.Insts                       9432203                       # Number of instructions fetch has processed
system.cpu1.fetch.MiscStallCycles            54791228                       # Number of cycles fetch has spent waiting on interrupts, or bad addresses, or out of MSHRs
system.cpu1.fetch.PendingQuiesceStallCycles            9                       # Number of stall cycles due to pending quiesce instructions
system.cpu1.fetch.SquashCycles                  85834                       # Number of cycles fetch has spent squashing
system.cpu1.fetch.branchRate                 0.001810                       # Number of branch fetches per cycle
system.cpu1.fetch.icacheStallCycles            553466                       # Number of cycles fetch is stalled on an Icache miss
system.cpu1.fetch.predictedBranches            903583                       # Number of branches that fetch has predicted taken
system.cpu1.fetch.rate                       0.008303                       # Number of inst fetches per cycle
system.cpu1.fetch.rateDist::samples        1025689891                       # Number of instructions fetched each cycle (Total)
system.cpu1.fetch.rateDist::mean             0.017599                       # Number of instructions fetched each cycle (Total)
system.cpu1.fetch.rateDist::stdev            0.349939                       # Number of instructions fetched each cycle (Total)
system.cpu1.fetch.rateDist::underflows              0      0.00%      0.00% # Number of instructions fetched each cycle (Total)
system.cpu1.fetch.rateDist::0              1022665509     99.71%     99.71% # Number of instructions fetched each cycle (Total)
system.cpu1.fetch.rateDist::1                  182031      0.02%     99.72% # Number of instructions fetched each cycle (Total)
system.cpu1.fetch.rateDist::2                  226769      0.02%     99.74% # Number of instructions fetched each cycle (Total)
system.cpu1.fetch.rateDist::3                  295146      0.03%     99.77% # Number of instructions fetched each cycle (Total)
system.cpu1.fetch.rateDist::4                  194933      0.02%     99.79% # Number of instructions fetched each cycle (Total)
system.cpu1.fetch.rateDist::5                  251975      0.02%     99.82% # Number of instructions fetched each cycle (Total)
system.cpu1.fetch.rateDist::6                  156747      0.02%     99.83% # Number of instructions fetched each cycle (Total)
system.cpu1.fetch.rateDist::7                  183966      0.02%     99.85% # Number of instructions fetched each cycle (Total)
system.cpu1.fetch.rateDist::8                 1532815      0.15%    100.00% # Number of instructions fetched each cycle (Total)
system.cpu1.fetch.rateDist::overflows               0      0.00%    100.00% # Number of instructions fetched each cycle (Total)
system.cpu1.fetch.rateDist::min_value               0                       # Number of instructions fetched each cycle (Total)
system.cpu1.fetch.rateDist::max_value               8                       # Number of instructions fetched each cycle (Total)
system.cpu1.fetch.rateDist::total          1025689891                       # Number of instructions fetched each cycle (Total)
system.cpu1.fp_regfile_reads                   249890                       # number of floating regfile reads
system.cpu1.fp_regfile_writes                  161970                       # number of floating regfile writes
system.cpu1.idleCycles                      110361399                       # Total number of cycles that the CPU has spent unscheduled due to idling
system.cpu1.iew.branchMispredicts               50104                       # Number of branch mispredicts detected at execute
system.cpu1.iew.exec_branches                 1691917                       # Number of branches executed
system.cpu1.iew.exec_nop                            0                       # number of nop insts executed
system.cpu1.iew.exec_rate                    0.018973                       # Inst execution rate
system.cpu1.iew.exec_refs                     9283459                       # number of memory reference insts executed
system.cpu1.iew.exec_stores                   1290501                       # Number of stores executed
system.cpu1.iew.exec_swp                            0                       # number of swp insts executed
system.cpu1.iew.iewBlockCycles              669119131                       # Number of cycles IEW is blocking
system.cpu1.iew.iewDispLoadInsts              1983424                       # Number of dispatched load instructions
system.cpu1.iew.iewDispNonSpecInsts              1100                       # Number of dispatched non-speculative instructions
system.cpu1.iew.iewDispSquashedInsts             2785                       # Number of squashed instructions skipped by dispatch
system.cpu1.iew.iewDispStoreInsts             1414800                       # Number of dispatched store instructions
system.cpu1.iew.iewDispatchedInsts           16472674                       # Number of instructions dispatched to IQ
system.cpu1.iew.iewExecLoadInsts              7992958                       # Number of load instructions executed
system.cpu1.iew.iewExecSquashedInsts           129194                       # Number of squashed instructions skipped in execute
system.cpu1.iew.iewExecutedInsts             21554525                       # Number of executed instructions
system.cpu1.iew.iewIQFullEvents                 12445                       # Number of times the IQ has become full, causing a stall
system.cpu1.iew.iewIdleCycles                       0                       # Number of cycles IEW is idle
system.cpu1.iew.iewLSQFullEvents                58593                       # Number of times the LSQ has become full, causing a stall
system.cpu1.iew.iewSquashCycles                 42917                       # Number of cycles IEW is squashing
system.cpu1.iew.iewUnblockCycles                81623                       # Number of cycles IEW is unblocking
system.cpu1.iew.lsq.thread0.blockedLoads            0                       # Number of blocked loads due to partial load-store forwarding
system.cpu1.iew.lsq.thread0.cacheBlocked      2978343                       # Number of times an access to memory failed due to the cache being blocked
system.cpu1.iew.lsq.thread0.forwLoads          407578                       # Number of loads that had data forwarded from stores
system.cpu1.iew.lsq.thread0.ignoredResponses          337                       # Number of memory responses ignored because the instruction is squashed
system.cpu1.iew.lsq.thread0.invAddrLoads            0                       # Number of loads ignored due to an invalid address
system.cpu1.iew.lsq.thread0.invAddrSwpfs            0                       # Number of software prefetches ignored due to an invalid address
system.cpu1.iew.lsq.thread0.memOrderViolation          616                       # Number of memory ordering violations
system.cpu1.iew.lsq.thread0.rescheduledLoads            6                       # Number of loads that were rescheduled
system.cpu1.iew.lsq.thread0.squashedLoads       404519                       # Number of loads squashed
system.cpu1.iew.lsq.thread0.squashedStores       216557                       # Number of stores squashed
system.cpu1.iew.memOrderViolationEvents           616                       # Number of memory order violations
system.cpu1.iew.predictedNotTakenIncorrect        47796                       # Number of branches that were predicted not taken incorrectly
system.cpu1.iew.predictedTakenIncorrect          2308                       # Number of branches that were predicted taken incorrectly
system.cpu1.iew.wb_consumers                 19766954                       # num instructions consuming a value
system.cpu1.iew.wb_count                     15268880                       # cumulative count of insts written-back
system.cpu1.iew.wb_fanout                    0.559155                       # average fanout of values written-back
system.cpu1.iew.wb_producers                 11052796                       # num instructions producing a value
system.cpu1.iew.wb_rate                      0.013440                       # insts written-back per cycle
system.cpu1.iew.wb_sent                      15292683                       # cumulative count of insts sent to commit
system.cpu1.int_regfile_reads                35502888                       # number of integer regfile reads
system.cpu1.int_regfile_writes               12359899                       # number of integer regfile writes
system.cpu1.ipc                              0.006295                       # IPC: Instructions Per Cycle
system.cpu1.ipc_total                        0.006295                       # IPC: Total IPC of All Threads
system.cpu1.iq.FU_type_0::No_OpClass            54482      0.25%      0.25% # Type of FU issued
system.cpu1.iq.FU_type_0::IntAlu             12005814     55.37%     55.62% # Type of FU issued
system.cpu1.iq.FU_type_0::IntMult               45266      0.21%     55.83% # Type of FU issued
system.cpu1.iq.FU_type_0::IntDiv                97149      0.45%     56.28% # Type of FU issued
system.cpu1.iq.FU_type_0::FloatAdd              17871      0.08%     56.36% # Type of FU issued
system.cpu1.iq.FU_type_0::FloatCmp                  0      0.00%     56.36% # Type of FU issued
system.cpu1.iq.FU_type_0::FloatCvt                 32      0.00%     56.36% # Type of FU issued
system.cpu1.iq.FU_type_0::FloatMult                 0      0.00%     56.36% # Type of FU issued
system.cpu1.iq.FU_type_0::FloatMultAcc              0      0.00%     56.36% # Type of FU issued
system.cpu1.iq.FU_type_0::FloatDiv                  0      0.00%     56.36% # Type of FU issued
system.cpu1.iq.FU_type_0::FloatMisc                 0      0.00%     56.36% # Type of FU issued
system.cpu1.iq.FU_type_0::FloatSqrt                 0      0.00%     56.36% # Type of FU issued
system.cpu1.iq.FU_type_0::SimdAdd                1190      0.01%     56.36% # Type of FU issued
system.cpu1.iq.FU_type_0::SimdAddAcc                0      0.00%     56.36% # Type of FU issued
system.cpu1.iq.FU_type_0::SimdAlu                2301      0.01%     56.37% # Type of FU issued
system.cpu1.iq.FU_type_0::SimdCmp                  26      0.00%     56.37% # Type of FU issued
system.cpu1.iq.FU_type_0::SimdCvt               20329      0.09%     56.47% # Type of FU issued
system.cpu1.iq.FU_type_0::SimdMisc              79316      0.37%     56.83% # Type of FU issued
system.cpu1.iq.FU_type_0::SimdMult                  0      0.00%     56.83% # Type of FU issued
system.cpu1.iq.FU_type_0::SimdMultAcc               0      0.00%     56.83% # Type of FU issued
system.cpu1.iq.FU_type_0::SimdShift               852      0.00%     56.84% # Type of FU issued
system.cpu1.iq.FU_type_0::SimdShiftAcc              0      0.00%     56.84% # Type of FU issued
system.cpu1.iq.FU_type_0::SimdDiv                   0      0.00%     56.84% # Type of FU issued
system.cpu1.iq.FU_type_0::SimdSqrt                  0      0.00%     56.84% # Type of FU issued
system.cpu1.iq.FU_type_0::SimdFloatAdd              0      0.00%     56.84% # Type of FU issued
system.cpu1.iq.FU_type_0::SimdFloatAlu              0      0.00%     56.84% # Type of FU issued
system.cpu1.iq.FU_type_0::SimdFloatCmp              0      0.00%     56.84% # Type of FU issued
system.cpu1.iq.FU_type_0::SimdFloatCvt              1      0.00%     56.84% # Type of FU issued
system.cpu1.iq.FU_type_0::SimdFloatDiv              0      0.00%     56.84% # Type of FU issued
system.cpu1.iq.FU_type_0::SimdFloatMisc             0      0.00%     56.84% # Type of FU issued
system.cpu1.iq.FU_type_0::SimdFloatMult             0      0.00%     56.84% # Type of FU issued
system.cpu1.iq.FU_type_0::SimdFloatMultAcc            0      0.00%     56.84% # Type of FU issued
system.cpu1.iq.FU_type_0::SimdFloatSqrt             0      0.00%     56.84% # Type of FU issued
system.cpu1.iq.FU_type_0::SimdReduceAdd             0      0.00%     56.84% # Type of FU issued
system.cpu1.iq.FU_type_0::SimdReduceAlu             0      0.00%     56.84% # Type of FU issued
system.cpu1.iq.FU_type_0::SimdReduceCmp             0      0.00%     56.84% # Type of FU issued
system.cpu1.iq.FU_type_0::SimdFloatReduceAdd            0      0.00%     56.84% # Type of FU issued
system.cpu1.iq.FU_type_0::SimdFloatReduceCmp            0      0.00%     56.84% # Type of FU issued
system.cpu1.iq.FU_type_0::SimdAes                   0      0.00%     56.84% # Type of FU issued
system.cpu1.iq.FU_type_0::SimdAesMix                0      0.00%     56.84% # Type of FU issued
system.cpu1.iq.FU_type_0::SimdSha1Hash              0      0.00%     56.84% # Type of FU issued
system.cpu1.iq.FU_type_0::SimdSha1Hash2             0      0.00%     56.84% # Type of FU issued
system.cpu1.iq.FU_type_0::SimdSha256Hash            0      0.00%     56.84% # Type of FU issued
system.cpu1.iq.FU_type_0::SimdSha256Hash2            0      0.00%     56.84% # Type of FU issued
system.cpu1.iq.FU_type_0::SimdShaSigma2             0      0.00%     56.84% # Type of FU issued
system.cpu1.iq.FU_type_0::SimdShaSigma3             0      0.00%     56.84% # Type of FU issued
system.cpu1.iq.FU_type_0::SimdPredAlu               0      0.00%     56.84% # Type of FU issued
system.cpu1.iq.FU_type_0::MemRead             7708477     35.55%     92.39% # Type of FU issued
system.cpu1.iq.FU_type_0::MemWrite            1268951      5.85%     98.24% # Type of FU issued
system.cpu1.iq.FU_type_0::FloatMemRead         351686      1.62%     99.86% # Type of FU issued
system.cpu1.iq.FU_type_0::FloatMemWrite         29976      0.14%    100.00% # Type of FU issued
system.cpu1.iq.FU_type_0::IprAccess                 0      0.00%    100.00% # Type of FU issued
system.cpu1.iq.FU_type_0::InstPrefetch              0      0.00%    100.00% # Type of FU issued
system.cpu1.iq.FU_type_0::total              21683719                       # Type of FU issued
system.cpu1.iq.fp_alu_accesses                 526425                       # Number of floating point alu accesses
system.cpu1.iq.fp_inst_queue_reads            1043595                       # Number of floating instruction queue reads
system.cpu1.iq.fp_inst_queue_wakeup_accesses       210427                       # Number of floating instruction queue wakeup accesses
system.cpu1.iq.fp_inst_queue_writes            282818                       # Number of floating instruction queue writes
system.cpu1.iq.fu_busy_cnt                    1257830                       # FU busy when requested
system.cpu1.iq.fu_busy_rate                  0.058008                       # FU busy rate (busy events/executed inst)
system.cpu1.iq.fu_full::No_OpClass                  0      0.00%      0.00% # attempts to use FU when none available
system.cpu1.iq.fu_full::IntAlu                 222977     17.73%     17.73% # attempts to use FU when none available
system.cpu1.iq.fu_full::IntMult                     0      0.00%     17.73% # attempts to use FU when none available
system.cpu1.iq.fu_full::IntDiv                      0      0.00%     17.73% # attempts to use FU when none available
system.cpu1.iq.fu_full::FloatAdd                    0      0.00%     17.73% # attempts to use FU when none available
system.cpu1.iq.fu_full::FloatCmp                    0      0.00%     17.73% # attempts to use FU when none available
system.cpu1.iq.fu_full::FloatCvt                    0      0.00%     17.73% # attempts to use FU when none available
system.cpu1.iq.fu_full::FloatMult                   0      0.00%     17.73% # attempts to use FU when none available
system.cpu1.iq.fu_full::FloatMultAcc                0      0.00%     17.73% # attempts to use FU when none available
system.cpu1.iq.fu_full::FloatDiv                    0      0.00%     17.73% # attempts to use FU when none available
system.cpu1.iq.fu_full::FloatMisc                   0      0.00%     17.73% # attempts to use FU when none available
[...]
system.mem_ctrl.wrQLenPdf::124                      0                       # What write queue length does an incoming req see
system.mem_ctrl.wrQLenPdf::125                      0                       # What write queue length does an incoming req see
system.mem_ctrl.wrQLenPdf::126                      0                       # What write queue length does an incoming req see
system.mem_ctrl.wrQLenPdf::127                      0                       # What write queue length does an incoming req see
system.mem_ctrl.bytesPerActivate::samples      3779490                       # Bytes accessed per row activation
system.mem_ctrl.bytesPerActivate::mean     288.245891                       # Bytes accessed per row activation
system.mem_ctrl.bytesPerActivate::gmean    268.346356                       # Bytes accessed per row activation
system.mem_ctrl.bytesPerActivate::stdev    146.104885                       # Bytes accessed per row activation
system.mem_ctrl.bytesPerActivate::0-127         54670      1.45%      1.45% # Bytes accessed per row activation
system.mem_ctrl.bytesPerActivate::128-255       101715      2.69%      4.14% # Bytes accessed per row activation
system.mem_ctrl.bytesPerActivate::256-383      3312196     87.64%     91.77% # Bytes accessed per row activation
system.mem_ctrl.bytesPerActivate::384-511        10778      0.29%     92.06% # Bytes accessed per row activation
system.mem_ctrl.bytesPerActivate::512-639       154786      4.10%     96.15% # Bytes accessed per row activation
system.mem_ctrl.bytesPerActivate::640-767         4796      0.13%     96.28% # Bytes accessed per row activation
system.mem_ctrl.bytesPerActivate::768-895        37578      0.99%     97.28% # Bytes accessed per row activation
system.mem_ctrl.bytesPerActivate::896-1023         3528      0.09%     97.37% # Bytes accessed per row activation
system.mem_ctrl.bytesPerActivate::1024-1151        99443      2.63%    100.00% # Bytes accessed per row activation
system.mem_ctrl.bytesPerActivate::total       3779490                       # Bytes accessed per row activation
system.mem_ctrl.rdPerTurnAround::samples       413268                       # Reads before turning the bus around for writes
system.mem_ctrl.rdPerTurnAround::mean       20.463631                       # Reads before turning the bus around for writes
system.mem_ctrl.rdPerTurnAround::stdev     284.781190                       # Reads before turning the bus around for writes
system.mem_ctrl.rdPerTurnAround::0-63          411145     99.49%     99.49% # Reads before turning the bus around for writes
system.mem_ctrl.rdPerTurnAround::3904-3967          558      0.14%     99.62% # Reads before turning the bus around for writes
system.mem_ctrl.rdPerTurnAround::3968-4031         1555      0.38%    100.00% # Reads before turning the bus around for writes
system.mem_ctrl.rdPerTurnAround::4032-4095           10      0.00%    100.00% # Reads before turning the bus around for writes
system.mem_ctrl.rdPerTurnAround::total         413268                       # Reads before turning the bus around for writes
system.mem_ctrl.wrPerTurnAround::samples       413268                       # Writes before turning the bus around for reads
system.mem_ctrl.wrPerTurnAround::mean       20.722425                       # Writes before turning the bus around for reads
system.mem_ctrl.wrPerTurnAround::gmean      20.398020                       # Writes before turning the bus around for reads
system.mem_ctrl.wrPerTurnAround::stdev       4.685890                       # Writes before turning the bus around for reads
system.mem_ctrl.wrPerTurnAround::16                24      0.01%      0.01% # Writes before turning the bus around for reads
system.mem_ctrl.wrPerTurnAround::17                 2      0.00%      0.01% # Writes before turning the bus around for reads
system.mem_ctrl.wrPerTurnAround::18                98      0.02%      0.03% # Writes before turning the bus around for reads
system.mem_ctrl.wrPerTurnAround::19            119492     28.91%     28.94% # Writes before turning the bus around for reads
system.mem_ctrl.wrPerTurnAround::20            263369     63.73%     92.67% # Writes before turning the bus around for reads
system.mem_ctrl.wrPerTurnAround::21              7595      1.84%     94.51% # Writes before turning the bus around for reads
system.mem_ctrl.wrPerTurnAround::22              1466      0.35%     94.86% # Writes before turning the bus around for reads
system.mem_ctrl.wrPerTurnAround::23              1892      0.46%     95.32% # Writes before turning the bus around for reads
system.mem_ctrl.wrPerTurnAround::24               204      0.05%     95.37% # Writes before turning the bus around for reads
system.mem_ctrl.wrPerTurnAround::25               198      0.05%     95.42% # Writes before turning the bus around for reads
system.mem_ctrl.wrPerTurnAround::26               310      0.08%     95.49% # Writes before turning the bus around for reads
system.mem_ctrl.wrPerTurnAround::27               306      0.07%     95.57% # Writes before turning the bus around for reads
system.mem_ctrl.wrPerTurnAround::28               341      0.08%     95.65% # Writes before turning the bus around for reads
system.mem_ctrl.wrPerTurnAround::29               428      0.10%     95.76% # Writes before turning the bus around for reads
system.mem_ctrl.wrPerTurnAround::30               852      0.21%     95.96% # Writes before turning the bus around for reads
system.mem_ctrl.wrPerTurnAround::31               282      0.07%     96.03% # Writes before turning the bus around for reads
system.mem_ctrl.wrPerTurnAround::32               211      0.05%     96.08% # Writes before turning the bus around for reads
system.mem_ctrl.wrPerTurnAround::33               154      0.04%     96.12% # Writes before turning the bus around for reads
system.mem_ctrl.wrPerTurnAround::34               163      0.04%     96.16% # Writes before turning the bus around for reads
system.mem_ctrl.wrPerTurnAround::35               135      0.03%     96.19% # Writes before turning the bus around for reads
system.mem_ctrl.wrPerTurnAround::36               160      0.04%     96.23% # Writes before turning the bus around for reads
system.mem_ctrl.wrPerTurnAround::37               275      0.07%     96.30% # Writes before turning the bus around for reads
system.mem_ctrl.wrPerTurnAround::38               424      0.10%     96.40% # Writes before turning the bus around for reads
system.mem_ctrl.wrPerTurnAround::39               733      0.18%     96.58% # Writes before turning the bus around for reads
system.mem_ctrl.wrPerTurnAround::40              1082      0.26%     96.84% # Writes before turning the bus around for reads
system.mem_ctrl.wrPerTurnAround::41              1528      0.37%     97.21% # Writes before turning the bus around for reads
system.mem_ctrl.wrPerTurnAround::42              1820      0.44%     97.65% # Writes before turning the bus around for reads
system.mem_ctrl.wrPerTurnAround::43              1890      0.46%     98.10% # Writes before turning the bus around for reads
system.mem_ctrl.wrPerTurnAround::44              1798      0.44%     98.54% # Writes before turning the bus around for reads
system.mem_ctrl.wrPerTurnAround::45              1979      0.48%     99.02% # Writes before turning the bus around for reads
system.mem_ctrl.wrPerTurnAround::46              1768      0.43%     99.45% # Writes before turning the bus around for reads
system.mem_ctrl.wrPerTurnAround::47              1042      0.25%     99.70% # Writes before turning the bus around for reads
system.mem_ctrl.wrPerTurnAround::48               400      0.10%     99.80% # Writes before turning the bus around for reads
system.mem_ctrl.wrPerTurnAround::49               450      0.11%     99.90% # Writes before turning the bus around for reads
system.mem_ctrl.wrPerTurnAround::50               284      0.07%     99.97% # Writes before turning the bus around for reads
system.mem_ctrl.wrPerTurnAround::51                38      0.01%     99.98% # Writes before turning the bus around for reads
system.mem_ctrl.wrPerTurnAround::52                 6      0.00%     99.98% # Writes before turning the bus around for reads
system.mem_ctrl.wrPerTurnAround::53                15      0.00%     99.99% # Writes before turning the bus around for reads
system.mem_ctrl.wrPerTurnAround::54                26      0.01%     99.99% # Writes before turning the bus around for reads
system.mem_ctrl.wrPerTurnAround::55                13      0.00%    100.00% # Writes before turning the bus around for reads
system.mem_ctrl.wrPerTurnAround::56                 5      0.00%    100.00% # Writes before turning the bus around for reads
system.mem_ctrl.wrPerTurnAround::57                 8      0.00%    100.00% # Writes before turning the bus around for reads
system.mem_ctrl.wrPerTurnAround::59                 1      0.00%    100.00% # Writes before turning the bus around for reads
system.mem_ctrl.wrPerTurnAround::61                 1      0.00%    100.00% # Writes before turning the bus around for reads
system.mem_ctrl.wrPerTurnAround::total         413268                       # Writes before turning the bus around for reads
system.mem_ctrl.bytesReadDRAM               541333824                       # Total number of bytes read from DRAM
system.mem_ctrl.bytesReadWrQ                  6851136                       # Total number of bytes read from write queue
system.mem_ctrl.bytesWritten                548090560                       # Total number of bytes written to DRAM
system.mem_ctrl.bytesReadSys                548184960                       # Total read bytes from the system interface side
system.mem_ctrl.bytesWrittenSys             548093952                       # Total written bytes from the system interface side
system.mem_ctrl.avgRdBW                        953.01                       # Average DRAM read bandwidth in MiByte/s
system.mem_ctrl.avgWrBW                        964.90                       # Average achieved write bandwidth in MiByte/s
system.mem_ctrl.avgRdBWSys                     965.07                       # Average system read bandwidth in MiByte/s
system.mem_ctrl.avgWrBWSys                     964.91                       # Average system write bandwidth in MiByte/s
system.mem_ctrl.peakBW                       19207.00                       # Theoretical peak bandwidth in MiByte/s
system.mem_ctrl.busUtil                          9.99                       # Data bus utilization in percentage
system.mem_ctrl.busUtilRead                      4.96                       # Data bus utilization in percentage for reads
system.mem_ctrl.busUtilWrite                     5.02                       # Data bus utilization in percentage for writes
system.mem_ctrl.totGap                   568025610000                       # Total gap between requests
system.mem_ctrl.avgGap                       33160.94                       # Average gap between requests
system.mem_ctrl.masterReadBytes::.writebacks    541333824                       # Per-master bytes read from memory
system.mem_ctrl.masterWriteBytes::.writebacks    548090560                       # Per-master bytes write to memory
system.mem_ctrl.masterReadRate::.writebacks 953009479.838722229004                       # Per-master bytes read from memory rate (Bytes/sec)
system.mem_ctrl.masterWriteRate::.writebacks 964904604.760322570801                       # Per-master bytes write to memory rate (Bytes/sec)
system.mem_ctrl.masterReadAccesses::.writebacks      8565390                       # Per-master read serviced memory accesses
system.mem_ctrl.masterWriteAccesses::.writebacks      8563968                       # Per-master write serviced memory accesses
system.mem_ctrl.masterReadTotalLat::.writebacks 208644143022                       # Per-master read total memory access latency
system.mem_ctrl.masterWriteTotalLat::.writebacks 30927192953786                       # Per-master write total memory access latency
system.mem_ctrl.masterReadAvgLat::.writebacks     24358.98                       # Per-master read average memory access latency
system.mem_ctrl.masterWriteAvgLat::.writebacks   3611315.80                       # Per-master write average memory access latency
system.mem_ctrl.pageHitRate                     77.80                       # Row buffer hit rate, read and write combined
system.mem_ctrl.rank1.actEnergy          2789255851.199821                       # Energy for activate commands per rank (pJ)
system.mem_ctrl.rank1.preEnergy          4924092850.689239                       # Energy for precharge commands per rank (pJ)
system.mem_ctrl.rank1.readEnergy         10636575043.450672                       # Energy for read commands per rank (pJ)
system.mem_ctrl.rank1.writeEnergy        9146730083.903996                       # Energy for write commands per rank (pJ)
system.mem_ctrl.rank1.refreshEnergy      49307717476.561134                       # Energy for refresh commands per rank (pJ)
system.mem_ctrl.rank1.actBackEnergy      257724523084.315155                       # Energy for active background per rank (pJ)
system.mem_ctrl.rank1.preBackEnergy      7482072245.493364                       # Energy for precharge background per rank (pJ)
system.mem_ctrl.rank1.actPowerDownEnergy            0                       # Energy for active power-down per rank (pJ)
system.mem_ctrl.rank1.prePowerDownEnergy            0                       # Energy for precharge power-down per rank (pJ)
system.mem_ctrl.rank1.selfRefreshEnergy             0                       # Energy for self refresh per rank (pJ)
system.mem_ctrl.rank1.totalEnergy        342010966635.689209                       # Total energy per rank (pJ)
system.mem_ctrl.rank1.averagePower         602.104799                       # Core power per rank (mW)
system.mem_ctrl.rank1.totalIdleTime                 0                       # Total Idle time Per DRAM Rank
system.mem_ctrl.rank1.memoryStateTime::IDLE  20840108852                       # Time in different power states
system.mem_ctrl.rank1.memoryStateTime::REF  25534600000                       # Time in different power states
system.mem_ctrl.rank1.memoryStateTime::SREF            0                       # Time in different power states
system.mem_ctrl.rank1.memoryStateTime::PRE_PDN            0                       # Time in different power states
system.mem_ctrl.rank1.memoryStateTime::ACT 521650935648                       # Time in different power states
system.mem_ctrl.rank1.memoryStateTime::ACT_PDN            0                       # Time in different power states
system.mem_ctrl.rank0.actEnergy          3104402622.047544                       # Energy for activate commands per rank (pJ)
system.mem_ctrl.rank0.preEnergy          5480459123.126638                       # Energy for precharge commands per rank (pJ)
system.mem_ctrl.rank0.readEnergy         12563828785.468184                       # Energy for read commands per rank (pJ)
system.mem_ctrl.rank0.writeEnergy        11056024980.336004                       # Energy for write commands per rank (pJ)
system.mem_ctrl.rank0.refreshEnergy      49307717476.561134                       # Energy for refresh commands per rank (pJ)
system.mem_ctrl.rank0.actBackEnergy      263137460340.992798                       # Energy for active background per rank (pJ)
system.mem_ctrl.rank0.preBackEnergy      3745222159.658173                       # Energy for precharge background per rank (pJ)
system.mem_ctrl.rank0.actPowerDownEnergy            0                       # Energy for active power-down per rank (pJ)
system.mem_ctrl.rank0.prePowerDownEnergy            0                       # Energy for precharge power-down per rank (pJ)
system.mem_ctrl.rank0.selfRefreshEnergy             0                       # Energy for self refresh per rank (pJ)
system.mem_ctrl.rank0.totalEnergy        348395115488.279480                       # Total energy per rank (pJ)
system.mem_ctrl.rank0.averagePower         613.343990                       # Core power per rank (mW)
system.mem_ctrl.rank0.totalIdleTime                 0                       # Total Idle time Per DRAM Rank
system.mem_ctrl.rank0.memoryStateTime::IDLE   9397844258                       # Time in different power states
system.mem_ctrl.rank0.memoryStateTime::REF  25534600000                       # Time in different power states
system.mem_ctrl.rank0.memoryStateTime::SREF            0                       # Time in different power states
system.mem_ctrl.rank0.memoryStateTime::PRE_PDN            0                       # Time in different power states
system.mem_ctrl.rank0.memoryStateTime::ACT 533093200242                       # Time in different power states
system.mem_ctrl.rank0.memoryStateTime::ACT_PDN            0                       # Time in different power states
system.cpu2.pwrStateResidencyTicks::ON   568025644500                       # Cumulative time (in ticks) in various power states
system.cpu2.dtb.walker.pwrStateResidencyTicks::UNDEFINED 568025644500                       # Cumulative time (in ticks) in various power states
system.cpu2.interrupts.clk_domain.clock          8000                       # Clock period in ticks
system.cpu2.cache.pwrStateResidencyTicks::UNDEFINED 568025644500                       # Cumulative time (in ticks) in various power states
system.cpu2.itb.walker.pwrStateResidencyTicks::UNDEFINED 568025644500                       # Cumulative time (in ticks) in various power states
system.cpu3.pwrStateResidencyTicks::ON   568025644500                       # Cumulative time (in ticks) in various power states
system.cpu3.dtb.walker.pwrStateResidencyTicks::UNDEFINED 568025644500                       # Cumulative time (in ticks) in various power states
system.cpu3.interrupts.clk_domain.clock          8000                       # Clock period in ticks
system.cpu3.cache.pwrStateResidencyTicks::UNDEFINED 568025644500                       # Cumulative time (in ticks) in various power states
system.cpu3.itb.walker.pwrStateResidencyTicks::UNDEFINED 568025644500                       # Cumulative time (in ticks) in various power states
system.cpu0.pwrStateResidencyTicks::ON   568025644500                       # Cumulative time (in ticks) in various power states
system.cpu0.dtb.walker.pwrStateResidencyTicks::UNDEFINED 568025644500                       # Cumulative time (in ticks) in various power states
system.cpu0.interrupts.clk_domain.clock          8000                       # Clock period in ticks
system.cpu0.cache.pwrStateResidencyTicks::UNDEFINED 568025644500                       # Cumulative time (in ticks) in various power states
system.cpu0.itb.walker.pwrStateResidencyTicks::UNDEFINED 568025644500                       # Cumulative time (in ticks) in various power states
system.clk_domain.clock                           500                       # Clock period in ticks
system.clk_domain.voltage_domain.voltage            1                       # Voltage in Volts
system.l2cache.pwrStateResidencyTicks::UNDEFINED 568025644500                       # Cumulative time (in ticks) in various power states
system.cpu1.pwrStateResidencyTicks::ON   568025644500                       # Cumulative time (in ticks) in various power states
system.cpu1.dtb.walker.pwrStateResidencyTicks::UNDEFINED 568025644500                       # Cumulative time (in ticks) in various power states
system.cpu1.interrupts.clk_domain.clock          8000                       # Clock period in ticks
system.cpu1.cache.pwrStateResidencyTicks::UNDEFINED 568025644500                       # Cumulative time (in ticks) in various power states
system.cpu1.itb.walker.pwrStateResidencyTicks::UNDEFINED 568025644500                       # Cumulative time (in ticks) in various power states

---------- End Simulation Statistics   ----------
